LAMMPS (2 Apr 2025 - Development - patch_2Apr2025-112-gb081d289c1-modified)
units metal
atom_style atomic
read_data tungsten.data
Reading data file ...
  orthogonal box = (0 0 0) to (15.825 15.825 15.825)
  reading atoms ...
  250 atoms

pair_style	uf3 3
pair_coeff	* * ./W.uf3 W
Reading potential file ./W.uf3 with DATE: 2025-04-22

# Define thermo output
thermo          100
thermo_style    custom step temp pe etotal press vol

# Minimization (relax atoms and box)
reset_timestep  0
fix 1 all box/relax iso 0.0 vmax 0.001
min_style       cg
minimize        1.0e-10 1.0e-10 10000 100000
 (src/min.cpp:219)
Step          Temp          PotEng         TotEng         Press          Volume
0   0             -1174.4876     -1174.4876     -38555.687      3963.0646
Loop time of 0.0251192 on 1 procs for 6 steps with 250 atoms

Minimization stats:
  Stopping criterion = energy tolerance
  Energy initial, next-to-last, final =
  Force two-norm initial, final = 286.10833 1.9802752e-05
  Force max component initial, final = 286.10833 1.9802752e-05
  Final line search alpha, max atom move = 0.55489438 1.0988436e-05
  Iterations, force evaluations = 6 9

unfix           1

# Equilibration at 3000 K
velocity        all create 6000.0 12345 mom yes rot no dist gaussian
fix             equil all npt temp 3000.0 3000.0 0.1 iso 0.0 0.0 1.0
run             2000
Step          Temp          PotEng         TotEng         Press          Volume
6   6000          -1174.951      -981.83634      52551.27       3925.1033
Averages over the last 11 of 22 rows, steps 1100 to 2006:
Temp PotEng TotEng Press Volume
2918.15 -1062.01 -968.083 -1599.33 4127.49
Loop time of 4.39422 on 1 procs for 2000 steps with 250 atoms

unfix           equil

# Temperature ramp from 3000K to 5000K
timestep        0.001

# Write atomic positions every 100 steps
dump            1 all custom 100 dump.relax_heat.lammpstrj id type x y z
dump_modify     1 sort id

fix             2 all npt temp 3000 5000.0 0.1 iso 0.0 0.0 1.0
run             50000
Step          Temp          PotEng         TotEng         Press          Volume
2006   3047.0883     -1060.7599     -962.68703     -20968.797      4152.7752
Averages over the last 251 of 502 rows, steps 27100 to 52006:
Temp PotEng TotEng Press Volume
4485.99 -872.462 -728.077 888.685 4675.36
Loop time of 88.4994 on 1 procs for 50000 steps with 250 atoms

unfix           2
